/*--------------------------------*- C++ -*----------------------------------*\
| =========                 |                                                 |
| \\      /  F ield         | OpenFOAM: The Open Source CFD Toolbox           |
|  \\    /   O peration     | Version:  2.3.0                                 |
|   \\  /    A nd           | Web:      www.OpenFOAM.org                      |
|    \\/     M anipulation  |                                                 |
\*---------------------------------------------------------------------------*/
FoamFile
{
    version     2.0;
    format      ascii;
    class       dictionary;
    location    "constant";
    object      transportProperties;
}
// * * * * * * * * * * * * * * * * * * * * * * * * * * * * * * * * * * * * * //

phases (liq gas);

gas
{
    transportModel  Newtonian;
    nu              nu  [0 2 -1 0 0 0 0] 1e-5;
    rho             rho [1 -3 0 0 0 0 0] 1;
}

liq
{
    transportModel  Newtonian;
    nu              nu  [0 2 -1 0 0 0 0] 1e-5;
    rho             rho [1 -3 0 0 0 0 0] 1001;
}

sigma               sigma [1 0 -2 0 0 0 0] 3.5e-5;
